StateEstimation/WLS Code/ieee34_1.dss
Clear

New Circuit.ieee34_1 basekv=69 pu=1.05 angle=30 MVAsc3=200000
New Linecode.1 Nphases=3 Rmatrix=[0.086667    0.029545    0.029072| 0.029545    0.088371    0.029924| 0.029072    0.029924    0.087405|] Xmatrix=[ 0.20417    0.095019    0.072898| 0.095019     0.19852    0.080227| 0.072898    0.080227     0.20172|] Cmatrix=[  2.8517    -0.92029    -0.35076| -0.92029      3.0046    -0.58501| -0.35076    -0.58501      2.7113|] BaseFreq=60
New Linecode.2 Nphases=3 Rmatrix=[0.088371    0.029924    0.029545| 0.029924    0.087405    0.029072| 0.029545    0.029072    0.086667|] Xmatrix=[ 0.19852    0.080227    0.095019| 0.080227     0.20172    0.072898| 0.095019    0.072898     0.20417|] Cmatrix=[  3.0046    -0.58501    -0.92029| -0.58501      2.7113    -0.35076| -0.92029    -0.35076      2.8517|] BaseFreq=60
New Linecode.3 Nphases=3 Rmatrix=[0.087405    0.029072    0.029924| 0.029072    0.086667    0.029545| 0.029924    0.029545    0.088371|] Xmatrix=[ 0.20172    0.072898    0.080227| 0.072898     0.20417    0.095019| 0.080227    0.095019     0.19852|] Cmatrix=[  2.7113    -0.35076    -0.58501| -0.35076      2.8517    -0.92029| -0.58501    -0.92029      3.0046|] BaseFreq=60
New Linecode.4 Nphases=3 Rmatrix=[0.087405    0.029924    0.029072| 0.029924    0.088371    0.029545| 0.029072    0.029545    0.086667|] Xmatrix=[ 0.20172    0.080227    0.072898| 0.080227     0.19852    0.095019| 0.072898    0.095019     0.20417|] Cmatrix=[  2.7113     0.58501    -0.35076|  0.58501      3.0046    -0.92029| -0.35076    -0.92029      2.8517|] BaseFreq=60
New Linecode.5 Nphases=3 Rmatrix=[0.088371    0.029545    0.029924| 0.029545    0.086667    0.029072| 0.029924    0.029072    0.087405|] Xmatrix=[ 0.19852    0.095019    0.080227| 0.095019     0.20417    0.072898| 0.080227    0.072898     0.20172|] Cmatrix=[  3.0046    -0.92029    -0.58501| -0.92029      2.8517    -0.35076| -0.58501    -0.35076      2.7113|] BaseFreq=60
New Linecode.6 Nphases=3 Rmatrix=[0.086667    0.029072    0.029545| 0.029072    0.087405    0.029924| 0.029545    0.029924    0.088371|] Xmatrix=[ 0.20417    0.072898    0.095019| 0.072898     0.20172    0.080227| 0.095019    0.080227     0.19852|] Cmatrix=[  2.8517    -0.35076    -0.92029| -0.35076      2.7113    -0.58501| -0.92029    -0.58501      3.0046|] BaseFreq=60
New Linecode.7 Nphases=2 Rmatrix=[0.086667    0.029072| 0.029072    0.087405|] Xmatrix=[ 0.20417    0.072898| 0.072898     0.20172|] Cmatrix=[  2.5698    -0.52995| -0.52995      2.5975|] BaseFreq=60
New Linecode.8 Nphases=2 Rmatrix=[0.086667    0.029072| 0.029072    0.087405|] Xmatrix=[ 0.20417    0.072898| 0.072898     0.20172|] Cmatrix=[  2.5698    -0.52995| -0.52995      2.5975|] BaseFreq=60
New Linecode.9 Nphases=1 Rmatrix=0.25174 Xmatrix=0.25521 Cmatrix=2.2704 BaseFreq=60
New Linecode.10 Nphases=1 Rmatrix=0.25174 Xmatrix=0.25521 Cmatrix=2.2704 BaseFreq=60
New Linecode.11 Nphases=1 Rmatrix=0.25174 Xmatrix=0.25521 Cmatrix=2.2704 BaseFreq=60
New Linecode.12 Nphases=3 Rmatrix=[ 0.28805    0.098447    0.093258| 0.098447     0.29032    0.098447| 0.093258    0.098447     0.28805|] Xmatrix=[ 0.14244    0.052557    0.040852| 0.052557     0.13564    0.052557| 0.040852    0.052557     0.14244|] Cmatrix=[33.7715            0            0|       0      33.7715            0|       0            0      33.7715|] BaseFreq=60
New Linecode.300 Nphases=3 Rmatrix=[ 0.25318    0.039792    0.040341| 0.039792     0.25072    0.039129| 0.040341    0.039129     0.25178|] Xmatrix=[ 0.25271     0.10945    0.094981|  0.10945     0.25699    0.086951| 0.094981    0.086951     0.25513|] Cmatrix=[  2.6802    -0.76928    -0.49951| -0.76928       2.561    -0.31207| -0.49951    -0.31207      2.4556|] BaseFreq=60
New Linecode.301 Nphases=3 Rmatrix=[ 0.36553    0.044072    0.044678| 0.044072     0.36282    0.043333| 0.044678    0.043333       0.364|] Xmatrix=[0.26733     0.12201     0.10778| 0.12201     0.27047    0.099205| 0.10778    0.099205     0.26911|] Cmatrix=[  2.5725    -0.72161    -0.47233| -0.72161      2.4644    -0.29896| -0.47233    -0.29896      2.3689|] BaseFreq=60
New Linecode.302 Nphases=1 Rmatrix=0.53021 Xmatrix=0.28135 Cmatrix=2.1226 BaseFreq=60
New Linecode.303 Nphases=1 Rmatrix=0.53021 Xmatrix=0.28135 Cmatrix=2.1226 BaseFreq=60
New Linecode.304 Nphases=1 Rmatrix=0.36396 Xmatrix=0.26917 Cmatrix=2.1922 BaseFreq=60
New Linecode.400 Nphases=3 Rmatrix=[0.088205    0.031214    0.030626| 0.031214    0.090195    0.031614| 0.030626    0.031614    0.088967|] Xmatrix=[ 0.20744    0.093531    0.076031| 0.093531     0.20078    0.085588| 0.076031    0.085588     0.20488|] Cmatrix=[   2.903    -0.67934    -0.22313| -0.67934       3.159    -0.48142| -0.22313    -0.48142      2.8965|] BaseFreq=60
New Linecode.601 Nphases=3 Rmatrix=[0.065625    0.029545    0.029924| 0.029545     0.06392    0.029072| 0.029924    0.029072    0.064659|] Xmatrix=[ 0.19278    0.095019    0.080227| 0.095019     0.19845    0.072898| 0.080227    0.072898     0.19598|] Cmatrix=[  3.1648     -1.0026    -0.63274|  -1.0026       2.994    -0.37261| -0.63274    -0.37261      2.8327|] BaseFreq=60
New Linecode.602 Nphases=3 Rmatrix=[ 0.14254    0.029924    0.029545| 0.029924     0.14157    0.029072| 0.029545    0.029072     0.14083|] Xmatrix=[ 0.22375    0.080227    0.095019| 0.080227     0.22695    0.072898| 0.095019    0.072898     0.22939|] Cmatrix=[   2.863    -0.54341    -0.84926| -0.54341       2.602    -0.33096| -0.84926    -0.33096      2.7252|] BaseFreq=60
New Linecode.603 Nphases=2 Rmatrix=[ 0.25178    0.039129| 0.039129     0.25072|] Xmatrix=[ 0.25513    0.086951| 0.086951     0.25699|] Cmatrix=[   2.366    -0.45208| -0.45208       2.344|] BaseFreq=60
New Linecode.604 Nphases=2 Rmatrix=[ 0.25072    0.039129| 0.039129     0.25178|] Xmatrix=[ 0.25699    0.086951| 0.086951     0.25513|] Cmatrix=[   2.344    -0.45208| -0.45208       2.366|] BaseFreq=60
New Linecode.605 Nphases=1 Rmatrix=0.25174 Xmatrix=0.25521 Cmatrix=2.2704 BaseFreq=60
New Linecode.606 Nphases=3 Rmatrix=[ 0.15117    0.060455    0.053958| 0.060455     0.14945    0.060455| 0.053958    0.060455     0.15117|] Xmatrix=[  0.084527   0.0062121  -0.0027083|  0.0062121    0.076534   0.0062121| -0.0027083   0.0062121    0.084527|] Cmatrix=[48.6746            0            0|       0      48.6746            0|       0            0      48.6746|] BaseFreq=60
New Linecode.607 Nphases=1 Rmatrix=0.25426 Xmatrix=0.097045 Cmatrix=44.7066 BaseFreq=60
New Linecode.721 Nphases=3 Rmatrix=[ 0.055417    0.012746   0.0063826|  0.012746    0.050114    0.012746| 0.0063826    0.012746    0.055417|] Xmatrix=[  0.037367  -0.0069697  -0.0078977| -0.0069697    0.035985  -0.0069697| -0.0078977  -0.0069697    0.037367|] Cmatrix=[80.2748            0            0|       0      80.2748            0|       0            0      80.2748|] BaseFreq=60
New Linecode.722 Nphases=3 Rmatrix=[0.089981    0.030852    0.023371| 0.030852       0.085    0.030852| 0.023371    0.030852    0.089981|] Xmatrix=[  0.056307  -0.0061742   -0.011496| -0.0061742     0.05072  -0.0061742|  -0.011496  -0.0061742    0.056307|] Cmatrix=[64.2184            0            0|       0      64.2184            0|       0            0      64.2184|] BaseFreq=60
New Linecode.723 Nphases=3 Rmatrix=[   0.245    0.092254    0.086837| 0.092254     0.24663    0.092254| 0.086837    0.092254       0.245|] Xmatrix=[ 0.12714    0.039981    0.028807| 0.039981     0.11981    0.039981| 0.028807    0.039981     0.12714|] Cmatrix=[37.5977            0            0|       0      37.5977            0|       0            0      37.5977|] BaseFreq=60
New Linecode.724 Nphases=3 Rmatrix=[ 0.39682    0.098561    0.093295| 0.098561     0.39902    0.098561| 0.093295    0.098561     0.39682|] Xmatrix=[ 0.14693    0.051856    0.040208| 0.051856     0.14011    0.051856| 0.040208    0.051856     0.14693|] Cmatrix=[30.267            0            0|      0       30.267            0|      0            0       30.267|] BaseFreq=60
New Line.L1 LineCode=300 Phases=3 bus1=800.1.2.3 bus2=802.1.2.3 Length=2.58
New Line.L2 LineCode=300 Phases=3 bus1=802.1.2.3 bus2=806.1.2.3 Length=1.73
New Line.L3 LineCode=300 Phases=3 bus1=806.1.2.3 bus2=808.1.2.3 Length=32.23
New Line.L4 LineCode=303 Phases=1 bus1=808.2 bus2=810.2 Length=5.804
New Line.L5 LineCode=300 Phases=3 bus1=808.1.2.3 bus2=812.1.2.3 Length=37.5
New Line.L6 LineCode=300 Phases=3 bus1=812.1.2.3 bus2=814.1.2.3 Length=29.73
New Line.L7 LineCode=301 Phases=3 bus1=814r.1.2.3 bus2=850.1.2.3 Length=0.01
New Line.L8 LineCode=302 Phases=1 bus1=816.1 bus2=818.1 Length=1.71
New Line.L9 LineCode=301 Phases=3 bus1=816.1.2.3 bus2=824.1.2.3 Length=10.21
New Line.L10 LineCode=302 Phases=1 bus1=818.1 bus2=820.1 Length=48.15
New Line.L11 LineCode=302 Phases=1 bus1=820.1 bus2=822.1 Length=13.74
New Line.L12 LineCode=303 Phases=1 bus1=824.2 bus2=826.2 Length=3.03
New Line.L13 LineCode=301 Phases=3 bus1=824.1.2.3 bus2=828.1.2.3 Length=0.84
New Line.L14 LineCode=301 Phases=3 bus1=828.1.2.3 bus2=830.1.2.3 Length=20.44
New Line.L15 LineCode=301 Phases=3 bus1=830.1.2.3 bus2=854.1.2.3 Length=0.52
New Line.L16 LineCode=301 Phases=3 bus1=832.1.2.3 bus2=858.1.2.3 Length=4.9
New Line.L17 LineCode=301 Phases=3 bus1=834.1.2.3 bus2=860.1.2.3 Length=2.02
New Line.L18 LineCode=301 Phases=3 bus1=834.1.2.3 bus2=842.1.2.3 Length=0.28
New Line.L19 LineCode=301 Phases=3 bus1=836.1.2.3 bus2=840.1.2.3 Length=0.86
New Line.L20 LineCode=301 Phases=3 bus1=836.1.2.3 bus2=862.1.2.3 Length=0.28
New Line.L21 LineCode=301 Phases=3 bus1=842.1.2.3 bus2=844.1.2.3 Length=1.35
New Line.L22 LineCode=301 Phases=3 bus1=844.1.2.3 bus2=846.1.2.3 Length=3.64
New Line.L23 LineCode=301 Phases=3 bus1=846.1.2.3 bus2=848.1.2.3 Length=0.53
New Line.L24 LineCode=301 Phases=3 bus1=850.1.2.3 bus2=816.1.2.3 Length=0.31
New Line.L25 LineCode=301 Phases=3 bus1=852r.1.2.3 bus2=832.1.2.3 Length=0.01
New Line.L26 LineCode=303 Phases=1 bus1=854.2 bus2=856.2 Length=23.33
New Line.L27 LineCode=301 Phases=3 bus1=854.1.2.3 bus2=852.1.2.3 Length=36.83
New Line.L28 LineCode=303 Phases=1 bus1=858.1 bus2=864.1 Length=1.62
New Line.L29 LineCode=301 Phases=3 bus1=858.1.2.3 bus2=834.1.2.3 Length=5.83
New Line.L30 LineCode=301 Phases=3 bus1=860.1.2.3 bus2=836.1.2.3 Length=2.68
New Line.L31 LineCode=304 Phases=1 bus1=862.2 bus2=838.2 Length=4.86
New Line.L32 LineCode=300 Phases=3 bus1=888.1.2.3 bus2=890.1.2.3 Length=10.56
New Transformer.SubXF Phases=3 Windings=2 XHL=0.01 Wdg=1 Bus=sourcebus Conn=delta kV=69 kVA=25000 %R=0.0005 Wdg=2 Bus=800 Conn=wye kV=24.9 kVA=25000 %R=0.0005
New Transformer.XFM1 Phases=3 Windings=2 XHL=4.08 Wdg=1 Bus=832 Conn=wye kV=24.9 kVA=500 %R=0.95 Wdg=2 Bus=888 Conn=wye kV=4.16 kVA=500 %R=0.95
New Transformer.reg1a Buses=[814.1 814r.1] Conns=wye Phases=1 Windings=2 XHL=1 kVAs=[20000  20000] kVs=[14.376       14.376]
New Transformer.reg1b Buses=[814.2 814r.2] Conns=wye Phases=1 Windings=2 XHL=1 kVAs=[20000  20000] kVs=[14.376       14.376]
New Transformer.reg1c Buses=[814.3 814r.3] Conns=wye Phases=1 Windings=2 XHL=1 kVAs=[20000  20000] kVs=[14.376       14.376]
New Transformer.reg2a Buses=[852.1 852r.1] Conns=wye Phases=1 Windings=2 XHL=1 kVAs=[20000  20000] kVs=[14.376       14.376]
New Transformer.reg2b Buses=[852.2 852r.2] Conns=wye Phases=1 Windings=2 XHL=1 kVAs=[20000  20000] kVs=[14.376       14.376]
New Transformer.reg2c Buses=[852.3 852r.3] Conns=wye Phases=1 Windings=2 XHL=1 kVAs=[20000  20000] kVs=[14.376       14.376]
New Capacitor.C844 Phases=3 Bus1=844 Kvar=300 Kv=24.9
New Capacitor.C848 Phases=3 Bus1=848 Kvar=450 Kv=24.9
New Load.S860 Phases=3 bus1=860 Kv=24.9 Kw=60 Model=1 Conn=Wye Kvar=48
New Load.S840 Phases=3 bus1=840 Kv=24.9 Kw=27 Model=5 Conn=Wye Kvar=21
New Load.S844 Phases=3 bus1=844 Kv=24.9 Kw=405 Model=2 Conn=Wye Kvar=315
New Load.S848 Phases=3 bus1=848 Kv=24.9 Kw=60 Model=1 Conn=Delta Kvar=48
New Load.S830a Phases=1 bus1=830.1.2 Kv=24.9 Kw=10 Model=2 Conn=Delta Kvar=5
New Load.S830b Phases=1 bus1=830.2.3 Kv=24.9 Kw=10 Model=2 Conn=Delta Kvar=5
New Load.S830c Phases=1 bus1=830.3.1 Kv=24.9 Kw=25 Model=2 Conn=Delta Kvar=10
New Load.S890 Phases=3 bus1=890 Kv=4.16 Kw=450 Model=5 Conn=Delta Kvar=225
New Load.D802_806sb Phases=1 bus1=802.2 Kv=14.376 Kw=15 Model=1 Conn=Wye Kvar=7.5
New Load.D802_806rb Phases=1 bus1=806.2 Kv=14.376 Kw=15 Model=1 Conn=Wye Kvar=7.5
New Load.D802_806sc Phases=1 bus1=802.3 Kv=14.376 Kw=12.5 Model=1 Conn=Wye Kvar=7
New Load.D802_806rc Phases=1 bus1=806.3 Kv=14.376 Kw=12.5 Model=1 Conn=Wye Kvar=7
New Load.D808_810sb Phases=1 bus1=808.2 Kv=14.376 Kw=8 Model=4 Conn=Wye Kvar=4
New Load.D808_810rb Phases=1 bus1=810.2 Kv=14.376 Kw=8 Model=4 Conn=Wye Kvar=4
New Load.D818_820sa Phases=1 bus1=818.1 Kv=14.376 Kw=17 Model=2 Conn=Wye Kvar=8.5
New Load.D818_820ra Phases=1 bus1=820.1 Kv=14.376 Kw=17 Model=2 Conn=Wye Kvar=8.5
New Load.D820_822sa Phases=1 bus1=820.1 Kv=14.376 Kw=67.5 Model=1 Conn=Wye Kvar=35
New Load.D820_822ra Phases=1 bus1=822.1 Kv=14.376 Kw=67.5 Model=1 Conn=Wye Kvar=35
New Load.D816_824sb Phases=1 bus1=816.2 Kv=24.9 Kw=2.5 Model=5 Conn=Delta Kvar=1
New Load.D816_824rb Phases=1 bus1=824.2 Kv=24.9 Kw=2.5 Model=5 Conn=Delta Kvar=1
New Load.D824_826sb Phases=1 bus1=824.2 Kv=14.376 Kw=20 Model=5 Conn=Wye Kvar=10
New Load.D824_826rb Phases=1 bus1=826.2 Kv=14.376 Kw=20 Model=5 Conn=Wye Kvar=10
New Load.D824_828sc Phases=1 bus1=824.3 Kv=14.376 Kw=2 Model=1 Conn=Wye Kvar=1
New Load.D824_828rc Phases=1 bus1=828.3 Kv=14.376 Kw=2 Model=1 Conn=Wye Kvar=1
New Load.D828_830sa Phases=1 bus1=828.1 Kv=14.376 Kw=3.5 Model=1 Conn=Wye Kvar=1.5
New Load.D828_830ra Phases=1 bus1=830.1 Kv=14.376 Kw=3.5 Model=1 Conn=Wye Kvar=1.5
New Load.D854_856sb Phases=1 bus1=854.2 Kv=14.376 Kw=2 Model=1 Conn=Wye Kvar=1
New Load.D854_856rb Phases=1 bus1=856.2 Kv=14.376 Kw=2 Model=1 Conn=Wye Kvar=1
New Load.D832_858sa Phases=1 bus1=832.1 Kv=24.9 Kw=3.5 Model=2 Conn=Delta Kvar=1.5
New Load.D832_858ra Phases=1 bus1=858.1 Kv=24.9 Kw=3.5 Model=2 Conn=Delta Kvar=1.5
New Load.D832_858sb Phases=1 bus1=832.2 Kv=24.9 Kw=1 Model=2 Conn=Delta Kvar=0.5
New Load.D832_858rb Phases=1 bus1=858.2 Kv=24.9 Kw=1 Model=2 Conn=Delta Kvar=0.5
New Load.D832_858sc Phases=1 bus1=832.3 Kv=24.9 Kw=3 Model=2 Conn=Delta Kvar=1.5
New Load.D832_858rc Phases=1 bus1=858.3 Kv=24.9 Kw=3 Model=2 Conn=Delta Kvar=1.5
New Load.D858_864sb Phases=1 bus1=858.1 Kv=14.376 Kw=1 Model=1 Conn=Wye Kvar=0.5
New Load.D858_864rb Phases=1 bus1=864.1 Kv=14.376 Kw=1 Model=1 Conn=Wye Kvar=0.5
New Load.D858_834sa Phases=1 bus1=858.1.2 Kv=24.9 Kw=2 Model=1 Conn=Delta Kvar=1
New Load.D858_834ra Phases=1 bus1=834.1.2 Kv=24.9 Kw=2 Model=1 Conn=Delta Kvar=1
New Load.D858_834sb Phases=1 bus1=858.2.3 Kv=24.9 Kw=7.5 Model=1 Conn=Delta Kvar=4
New Load.D858_834rb Phases=1 bus1=834.2.3 Kv=24.9 Kw=7.5 Model=1 Conn=Delta Kvar=4
New Load.D858_834sc Phases=1 bus1=858.3.1 Kv=24.9 Kw=6.5 Model=1 Conn=Delta Kvar=3.5
New Load.D858_834rc Phases=1 bus1=834.3.1 Kv=24.9 Kw=6.5 Model=1 Conn=Delta Kvar=3.5
New Load.D834_860sa Phases=1 bus1=834.1.2 Kv=24.9 Kw=8 Model=2 Conn=Delta Kvar=4
New Load.D834_860ra Phases=1 bus1=860.1.2 Kv=24.9 Kw=8 Model=2 Conn=Delta Kvar=4
New Load.D834_860sb Phases=1 bus1=834.2.3 Kv=24.9 Kw=10 Model=2 Conn=Delta Kvar=5
New Load.D834_860rb Phases=1 bus1=860.2.3 Kv=24.9 Kw=10 Model=2 Conn=Delta Kvar=5
New Load.D834_860sc Phases=1 bus1=834.3.1 Kv=24.9 Kw=55 Model=2 Conn=Delta Kvar=27.5
New Load.D834_860rc Phases=1 bus1=860.3.1 Kv=24.9 Kw=55 Model=2 Conn=Delta Kvar=27.5
New Load.D860_836sa Phases=1 bus1=860.1.2 Kv=24.9 Kw=15 Model=1 Conn=Delta Kvar=7.5
New Load.D860_836ra Phases=1 bus1=836.1.2 Kv=24.9 Kw=15 Model=1 Conn=Delta Kvar=7.5
New Load.D860_836sb Phases=1 bus1=860.2.3 Kv=24.9 Kw=5 Model=1 Conn=Delta Kvar=3
New Load.D860_836rb Phases=1 bus1=836.2.3 Kv=24.9 Kw=5 Model=1 Conn=Delta Kvar=3
New Load.D860_836sc Phases=1 bus1=860.3.1 Kv=24.9 Kw=21 Model=1 Conn=Delta Kvar=11
New Load.D860_836rc Phases=1 bus1=836.3.1 Kv=24.9 Kw=21 Model=1 Conn=Delta Kvar=11
New Load.D836_840sa Phases=1 bus1=836.1.2 Kv=24.9 Kw=9 Model=5 Conn=Delta Kvar=4.5
New Load.D836_840ra Phases=1 bus1=840.1.2 Kv=24.9 Kw=9 Model=5 Conn=Delta Kvar=4.5
New Load.D836_840sb Phases=1 bus1=836.2.3 Kv=24.9 Kw=11 Model=5 Conn=Delta Kvar=5.5
New Load.D836_840rb Phases=1 bus1=840.2.3 Kv=24.9 Kw=11 Model=5 Conn=Delta Kvar=5.5
New Load.D862_838sb Phases=1 bus1=862.2 Kv=14.376 Kw=14 Model=1 Conn=Wye Kvar=7
New Load.D862_838rb Phases=1 bus1=838.2 Kv=14.376 Kw=14 Model=1 Conn=Wye Kvar=7
New Load.D842_844sa Phases=1 bus1=842.1 Kv=14.376 Kw=4.5 Model=1 Conn=Wye Kvar=2.5
New Load.D842_844ra Phases=1 bus1=844.1 Kv=14.376 Kw=4.5 Model=1 Conn=Wye Kvar=2.5
New Load.D844_846sb Phases=1 bus1=844.2 Kv=14.376 Kw=12.5 Model=1 Conn=Wye Kvar=6
New Load.D844_846rb Phases=1 bus1=846.2 Kv=14.376 Kw=12.5 Model=1 Conn=Wye Kvar=6
New Load.D844_846sc Phases=1 bus1=844.3 Kv=14.376 Kw=10 Model=1 Conn=Wye Kvar=5.5
New Load.D844_846rc Phases=1 bus1=846.3 Kv=14.376 Kw=10 Model=1 Conn=Wye Kvar=5.5
New Load.D846_848sb Phases=1 bus1=846.2 Kv=14.376 Kw=11.5 Model=1 Conn=Wye Kvar=5.5
New Load.D846_848rb Phases=1 bus1=848.2 Kv=14.376 Kw=11.5 Model=1 Conn=Wye Kvar=5.5


! Let DSS estimate the voltage bases
Set voltagebases=[69 24.9 4.16 0.48]
Calcvoltagebases     ! This also establishes the bus list


set maxiterations=1000
